1
     RDKit          2D

 14 13  0  0  1  0  0  0  0  0999 V2000
    2.8660    0.7500    0.0000 O   0  0  0  0  0  0  0  0  0  0  0  0
    2.8660   -2.2500    0.0000 O   0  0  0  0  0  0  0  0  0  0  0  0
    2.0000   -0.7500    0.0000 O   0  0  0  0  0  0  0  0  0  0  0  0
    3.7320    2.2500    0.0000 O   0  0  0  0  0  0  0  0  0  0  0  0
    5.4641    0.2500    0.0000 N   0  0  0  0  0  0  0  0  0  0  0  0
    4.5981    0.7500    0.0000 C   0  0  0  0  0  0  0  0  0  0  0  0
    3.7320    0.2500    0.0000 C   0  0  0  0  0  0  0  0  0  0  0  0
    6.3301   -0.2500    0.0000 C   0  0  0  0  0  0  0  0  0  0  0  0
    5.9641    1.1160    0.0000 C   0  0  0  0  0  0  0  0  0  0  0  0
    4.9641   -0.6160    0.0000 C   0  0  0  0  0  0  0  0  0  0  0  0
    3.7320   -0.7500    0.0000 C   0  0  0  0  0  0  0  0  0  0  0  0
    2.8660   -1.2500    0.0000 C   0  0  0  0  0  0  0  0  0  0  0  0
    2.8660    1.7500    0.0000 C   0  0  0  0  0  0  0  0  0  0  0  0
    2.0000    2.2500    0.0000 C   0  0  0  0  0  0  0  0  0  0  0  0
  1  7  1  0
  1 13  1  0
  2 12  1  0
  3 12  2  0
  4 13  2  0
  5  6  1  0
  5  8  1  0
  5  9  1  0
  5 10  1  0
  6  7  1  0
  7 11  1  0
 11 12  1  0
 13 14  1  0
M  CHG  2   2  -1   5   1
M  END
>  <PUBCHEM_ATOM_DEF_STEREO_COUNT>  (1) 
0

>  <PUBCHEM_ATOM_UDEF_STEREO_COUNT>  (1) 
1

>  <PUBCHEM_BONDANNOTATIONS>  (1) 
7  6  3

>  <PUBCHEM_BOND_DEF_STEREO_COUNT>  (1) 
0

>  <PUBCHEM_BOND_UDEF_STEREO_COUNT>  (1) 
0

>  <PUBCHEM_CACTVS_COMPLEXITY>  (1) 
214

>  <PUBCHEM_CACTVS_HBOND_ACCEPTOR>  (1) 
4

>  <PUBCHEM_CACTVS_HBOND_DONOR>  (1) 
0

>  <PUBCHEM_CACTVS_ROTATABLE_BOND>  (1) 
5

>  <PUBCHEM_CACTVS_SUBSKEYS>  (1) 
AAADceByOAAAAAAAAAAAAAAAAAAAAAAAAAAAAAAAAAAAAAAAAAAAHgAAAAAACBThgAYCCAMABAAIAACQCAAAAAAAAAAAAAEIAAACABQAgAAHAAAFIAAQAAAkAAAAAAAAAAAAAAAAAAAAAAAAAAAAAAAAAA==

>  <PUBCHEM_CACTVS_TAUTO_COUNT>  (1) 
1

>  <PUBCHEM_CACTVS_TPSA>  (1) 
66.4

>  <PUBCHEM_COMPONENT_COUNT>  (1) 
1

>  <PUBCHEM_COMPOUND_CANONICALIZED>  (1) 
1

>  <PUBCHEM_COMPOUND_CID>  (1) 
1

>  <PUBCHEM_COORDINATE_TYPE>  (1) 
1
5
255

>  <PUBCHEM_EXACT_MASS>  (1) 
203.115758

>  <PUBCHEM_HEAVY_ATOM_COUNT>  (1) 
14

>  <PUBCHEM_ISOTOPIC_ATOM_COUNT>  (1) 
0

>  <PUBCHEM_IUPAC_CAS_NAME>  (1) 
3-acetyloxy-4-(trimethylammonio)butanoate

>  <PUBCHEM_IUPAC_INCHI>  (1) 
InChI=1S/C9H17NO4/c1-7(11)14-8(5-9(12)13)6-10(2,3)4/h8H,5-6H2,1-4H3

>  <PUBCHEM_IUPAC_INCHIKEY>  (1) 
RDHQFKQIGNGIED-UHFFFAOYSA-N

>  <PUBCHEM_IUPAC_NAME>  (1) 
3-acetyloxy-4-(trimethylazaniumyl)butanoate

>  <PUBCHEM_IUPAC_OPENEYE_NAME>  (1) 
3-acetoxy-4-(trimethylammonio)butanoate

>  <PUBCHEM_IUPAC_SYSTEMATIC_NAME>  (1) 
3-acetyloxy-4-(trimethylazaniumyl)butanoate

>  <PUBCHEM_IUPAC_TRADITIONAL_NAME>  (1) 
3-acetoxy-4-(trimethylammonio)butyrate

>  <PUBCHEM_MOLECULAR_FORMULA>  (1) 
C9H17NO4

>  <PUBCHEM_MOLECULAR_WEIGHT>  (1) 
203.23558

>  <PUBCHEM_MONOISOTOPIC_WEIGHT>  (1) 
203.115758

>  <PUBCHEM_OPENEYE_CAN_SMILES>  (1) 
CC(=O)OC(CC(=O)[O-])C[N+](C)(C)C

>  <PUBCHEM_OPENEYE_ISO_SMILES>  (1) 
CC(=O)OC(CC(=O)[O-])C[N+](C)(C)C

>  <PUBCHEM_TOTAL_CHARGE>  (1) 
0

>  <PUBCHEM_XLOGP3_AA>  (1) 
0.4

$$$$
2
     RDKit          2D

 14 13  0  0  1  0  0  0  0  0999 V2000
    4.2690   -0.7500    0.0000 O   0  0  0  0  0  0  0  0  0  0  0  0
    2.5369    2.2500    0.0000 O   0  0  0  0  0  0  0  0  0  0  0  0
    4.2690    2.2500    0.0000 O   0  0  0  0  0  0  0  0  0  0  0  0
    2.5369   -0.7500    0.0000 O   0  0  0  0  0  0  0  0  0  0  0  0
    6.0010    0.2500    0.0000 N   0  0  0  0  0  0  0  0  0  0  0  0
    5.1350    0.7500    0.0000 C   0  0  0  0  0  0  0  0  0  0  0  0
    4.2690    0.2500    0.0000 C   0  0  0  0  0  0  0  0  0  0  0  0
    6.8671   -0.2500    0.0000 C   0  0  0  0  0  0  0  0  0  0  0  0
    6.5010    1.1160    0.0000 C   0  0  0  0  0  0  0  0  0  0  0  0
    5.5010   -0.6160    0.0000 C   0  0  0  0  0  0  0  0  0  0  0  0
    3.4030    0.7500    0.0000 C   0  0  0  0  0  0  0  0  0  0  0  0
    3.4030    1.7500    0.0000 C   0  0  0  0  0  0  0  0  0  0  0  0
    3.4030   -1.2500    0.0000 C   0  0  0  0  0  0  0  0  0  0  0  0
    3.4030   -2.2500    0.0000 C   0  0  0  0  0  0  0  0  0  0  0  0
  1  7  1  0
  1 13  1  0
  2 12  1  0
  3 12  2  0
  4 13  2  0
  5  6  1  0
  5  8  1  0
  5  9  1  0
  5 10  1  0
  6  7  1  0
  7 11  1  0
 11 12  1  0
 13 14  1  0
M  CHG  1   5   1
M  END
>  <PUBCHEM_ATOM_DEF_STEREO_COUNT>  (2) 
0

>  <PUBCHEM_ATOM_UDEF_STEREO_COUNT>  (2) 
1

>  <PUBCHEM_BONDANNOTATIONS>  (2) 
7  11  3

>  <PUBCHEM_BOND_DEF_STEREO_COUNT>  (2) 
0

>  <PUBCHEM_BOND_UDEF_STEREO_COUNT>  (2) 
0

>  <PUBCHEM_CACTVS_COMPLEXITY>  (2) 
219

>  <PUBCHEM_CACTVS_HBOND_ACCEPTOR>  (2) 
4

>  <PUBCHEM_CACTVS_HBOND_DONOR>  (2) 
1

>  <PUBCHEM_CACTVS_ROTATABLE_BOND>  (2) 
6

>  <PUBCHEM_CACTVS_SUBSKEYS>  (2) 
AAADceByOAAAAAAAAAAAAAAAAAAAAAAAAAAAAAAAAAAAAAAAAAAAHgAACAAACBThgAYCCAMABgAIAACQCAAAAAAAAAAAAAEIAAACABQAgAAHQAAFIAAQAAAkAAAAAAAAAAAAAAAAAAAAAAAAAAAAAAAAAA==

>  <PUBCHEM_CACTVS_TAUTO_COUNT>  (2) 
1

>  <PUBCHEM_CACTVS_TPSA>  (2) 
63.6

>  <PUBCHEM_COMPONENT_COUNT>  (2) 
1

>  <PUBCHEM_COMPOUND_CANONICALIZED>  (2) 
1

>  <PUBCHEM_COMPOUND_CID>  (2) 
2

>  <PUBCHEM_COORDINATE_TYPE>  (2) 
1
5
255

>  <PUBCHEM_EXACT_MASS>  (2) 
204.123583

>  <PUBCHEM_HEAVY_ATOM_COUNT>  (2) 
14

>  <PUBCHEM_ISOTOPIC_ATOM_COUNT>  (2) 
0

>  <PUBCHEM_IUPAC_CAS_NAME>  (2) 
(2-acetyloxy-3-carboxypropyl)-trimethylammonium

>  <PUBCHEM_IUPAC_INCHI>  (2) 
InChI=1S/C9H17NO4/c1-7(11)14-8(5-9(12)13)6-10(2,3)4/h8H,5-6H2,1-4H3/p+1

>  <PUBCHEM_IUPAC_INCHIKEY>  (2) 
RDHQFKQIGNGIED-UHFFFAOYSA-O

>  <PUBCHEM_IUPAC_NAME>  (2) 
(2-acetyloxy-3-carboxypropyl)-trimethylazanium

>  <PUBCHEM_IUPAC_OPENEYE_NAME>  (2) 
(2-acetoxy-3-carboxy-propyl)-trimethyl-ammonium

>  <PUBCHEM_IUPAC_SYSTEMATIC_NAME>  (2) 
(2-acetyloxy-4-oxidanyl-4-oxidanylidene-butyl)-trimethyl-azanium

>  <PUBCHEM_IUPAC_TRADITIONAL_NAME>  (2) 
(2-acetoxy-3-carboxy-propyl)-trimethyl-ammonium

>  <PUBCHEM_MOLECULAR_FORMULA>  (2) 
C9H18NO4+

>  <PUBCHEM_MOLECULAR_WEIGHT>  (2) 
204.24352

>  <PUBCHEM_MONOISOTOPIC_WEIGHT>  (2) 
204.123583

>  <PUBCHEM_OPENEYE_CAN_SMILES>  (2) 
CC(=O)OC(CC(=O)O)C[N+](C)(C)C

>  <PUBCHEM_OPENEYE_ISO_SMILES>  (2) 
CC(=O)OC(CC(=O)O)C[N+](C)(C)C

>  <PUBCHEM_TOTAL_CHARGE>  (2) 
1

>  <PUBCHEM_XLOGP3_AA>  (2) 
-0.3

$$$$
3
     RDKit          2D

 11 11  0  0  1  0  0  0  0  0999 V2000
    5.1350    1.3450    0.0000 O   0  0  0  0  0  0  0  0  0  0  0  0
    6.8671    0.3450    0.0000 O   0  0  0  0  0  0  0  0  0  0  0  0
    2.5369   -0.1550    0.0000 O   0  0  0  0  0  0  0  0  0  0  0  0
    3.4030    1.3450    0.0000 O   0  0  0  0  0  0  0  0  0  0  0  0
    5.1350    0.3450    0.0000 C   0  0  0  0  0  0  0  0  0  0  0  0
    6.0010   -0.1550    0.0000 C   0  0  0  0  0  0  0  0  0  0  0  0
    4.2690   -0.1550    0.0000 C   0  0  0  0  0  0  0  0  0  0  0  0
    6.0010   -1.1550    0.0000 C   0  0  0  0  0  0  0  0  0  0  0  0
    4.2690   -1.1550    0.0000 C   0  0  0  0  0  0  0  0  0  0  0  0
    5.1350   -1.6550    0.0000 C   0  0  0  0  0  0  0  0  0  0  0  0
    3.4030    0.3450    0.0000 C   0  0  0  0  0  0  0  0  0  0  0  0
  1  5  1  0
  2  6  1  0
  3 11  1  0
  4 11  2  0
  5  6  1  0
  5  7  1  0
  6  8  1  0
  7  9  2  0
  7 11  1  0
  8 10  2  0
  9 10  1  0
M  END
>  <PUBCHEM_ATOM_DEF_STEREO_COUNT>  (3) 
0

>  <PUBCHEM_ATOM_UDEF_STEREO_COUNT>  (3) 
2

>  <PUBCHEM_BONDANNOTATIONS>  (3) 
5  12  3
6  13  3

>  <PUBCHEM_BOND_DEF_STEREO_COUNT>  (3) 
0

>  <PUBCHEM_BOND_UDEF_STEREO_COUNT>  (3) 
0

>  <PUBCHEM_CACTVS_COMPLEXITY>  (3) 
229

>  <PUBCHEM_CACTVS_HBOND_ACCEPTOR>  (3) 
4

>  <PUBCHEM_CACTVS_HBOND_DONOR>  (3) 
3

>  <PUBCHEM_CACTVS_ROTATABLE_BOND>  (3) 
1

>  <PUBCHEM_CACTVS_SUBSKEYS>  (3) 
AAADccBgOAAAAAAAAAAAAAAAAAAAAAAAAAAgAAAAAAAAAAAAAAAAGgAACAAADBSggAIACAAAAgCIAiDSCAAAAAAgAAAICAEAAEgJFBYAAQAAUAAF4AAJkYLKAAAAAAAAAAAAAAAAAAAAAAAAAAAAAAAAAA==

>  <PUBCHEM_CACTVS_TAUTO_COUNT>  (3) 
1

>  <PUBCHEM_CACTVS_TPSA>  (3) 
77.8

>  <PUBCHEM_COMPONENT_COUNT>  (3) 
1

>  <PUBCHEM_COMPOUND_CANONICALIZED>  (3) 
1

>  <PUBCHEM_COMPOUND_CID>  (3) 
3

>  <PUBCHEM_COORDINATE_TYPE>  (3) 
1
5
255

>  <PUBCHEM_EXACT_MASS>  (3) 
156.042259

>  <PUBCHEM_HEAVY_ATOM_COUNT>  (3) 
11

>  <PUBCHEM_ISOTOPIC_ATOM_COUNT>  (3) 
0

>  <PUBCHEM_IUPAC_CAS_NAME>  (3) 
5,6-dihydroxy-1-cyclohexa-1,3-dienecarboxylic acid

>  <PUBCHEM_IUPAC_INCHI>  (3) 
InChI=1S/C7H8O4/c8-5-3-1-2-4(6(5)9)7(10)11/h1-3,5-6,8-9H,(H,10,11)

>  <PUBCHEM_IUPAC_INCHIKEY>  (3) 
INCSWYKICIYAHB-UHFFFAOYSA-N

>  <PUBCHEM_IUPAC_NAME>  (3) 
5,6-dihydroxycyclohexa-1,3-diene-1-carboxylic acid

>  <PUBCHEM_IUPAC_OPENEYE_NAME>  (3) 
5,6-dihydroxycyclohexa-1,3-diene-1-carboxylic acid

>  <PUBCHEM_IUPAC_SYSTEMATIC_NAME>  (3) 
5,6-bis(oxidanyl)cyclohexa-1,3-diene-1-carboxylic acid

>  <PUBCHEM_IUPAC_TRADITIONAL_NAME>  (3) 
5,6-dihydroxycyclohexa-1,3-diene-1-carboxylic acid

>  <PUBCHEM_MOLECULAR_FORMULA>  (3) 
C7H8O4

>  <PUBCHEM_MOLECULAR_WEIGHT>  (3) 
156.13602

>  <PUBCHEM_MONOISOTOPIC_WEIGHT>  (3) 
156.042259

>  <PUBCHEM_OPENEYE_CAN_SMILES>  (3) 
C1=CC(C(C(=C1)C(=O)O)O)O

>  <PUBCHEM_OPENEYE_ISO_SMILES>  (3) 
C1=CC(C(C(=C1)C(=O)O)O)O

>  <PUBCHEM_TOTAL_CHARGE>  (3) 
0

>  <PUBCHEM_XLOGP3_AA>  (3) 
-0.3

$$$$
4
     RDKit          2D

  5  4  0  0  1  0  0  0  0  0999 V2000
    2.5369    0.7500    0.0000 O   0  0  0  0  0  0  0  0  0  0  0  0
    5.1350    0.2500    0.0000 N   0  0  0  0  0  0  0  0  0  0  0  0
    3.4030    0.2500    0.0000 C   0  0  0  0  0  0  0  0  0  0  0  0
    4.2690    0.7500    0.0000 C   0  0  0  0  0  0  0  0  0  0  0  0
    3.4030   -0.7500    0.0000 C   0  0  0  0  0  0  0  0  0  0  0  0
  1  3  1  0
  2  4  1  0
  3  4  1  0
  3  5  1  0
M  END
>  <PUBCHEM_ATOM_DEF_STEREO_COUNT>  (4) 
0

>  <PUBCHEM_ATOM_UDEF_STEREO_COUNT>  (4) 
1

>  <PUBCHEM_BONDANNOTATIONS>  (4) 
3  6  3

>  <PUBCHEM_BOND_DEF_STEREO_COUNT>  (4) 
0

>  <PUBCHEM_BOND_UDEF_STEREO_COUNT>  (4) 
0

>  <PUBCHEM_CACTVS_COMPLEXITY>  (4) 
22.9

>  <PUBCHEM_CACTVS_HBOND_ACCEPTOR>  (4) 
2

>  <PUBCHEM_CACTVS_HBOND_DONOR>  (4) 
2

>  <PUBCHEM_CACTVS_ROTATABLE_BOND>  (4) 
1

>  <PUBCHEM_CACTVS_SUBSKEYS>  (4) 
AAADccBCIAAAAAAAAAAAAAAAAAAAAAAAAAAAAAAAAAAAAAAAAAAAHgAQCAAACBThgAYCAABAAgAAAAAAAAAAAAAAAAAAAIAAAAACEAAAAAAAAAAAEAAAAAAAAAAAAAAAAAAAAAAAAAAAAAAAAAAAAAAAAA==

>  <PUBCHEM_CACTVS_TAUTO_COUNT>  (4) 
1

>  <PUBCHEM_CACTVS_TPSA>  (4) 
46.2

>  <PUBCHEM_COMPONENT_COUNT>  (4) 
1

>  <PUBCHEM_COMPOUND_CANONICALIZED>  (4) 
1

>  <PUBCHEM_COMPOUND_CID>  (4) 
4

>  <PUBCHEM_COORDINATE_TYPE>  (4) 
1
5
255

>  <PUBCHEM_EXACT_MASS>  (4) 
75.068414

>  <PUBCHEM_HEAVY_ATOM_COUNT>  (4) 
5

>  <PUBCHEM_ISOTOPIC_ATOM_COUNT>  (4) 
0

>  <PUBCHEM_IUPAC_CAS_NAME>  (4) 
1-amino-2-propanol

>  <PUBCHEM_IUPAC_INCHI>  (4) 
InChI=1S/C3H9NO/c1-3(5)2-4/h3,5H,2,4H2,1H3

>  <PUBCHEM_IUPAC_INCHIKEY>  (4) 
HXKKHQJGJAFBHI-UHFFFAOYSA-N

>  <PUBCHEM_IUPAC_NAME>  (4) 
1-aminopropan-2-ol

>  <PUBCHEM_IUPAC_OPENEYE_NAME>  (4) 
1-aminopropan-2-ol

>  <PUBCHEM_IUPAC_SYSTEMATIC_NAME>  (4) 
1-azanylpropan-2-ol

>  <PUBCHEM_IUPAC_TRADITIONAL_NAME>  (4) 
1-aminopropan-2-ol

>  <PUBCHEM_MOLECULAR_FORMULA>  (4) 
C3H9NO

>  <PUBCHEM_MOLECULAR_WEIGHT>  (4) 
75.10966

>  <PUBCHEM_MONOISOTOPIC_WEIGHT>  (4) 
75.068414

>  <PUBCHEM_OPENEYE_CAN_SMILES>  (4) 
CC(CN)O

>  <PUBCHEM_OPENEYE_ISO_SMILES>  (4) 
CC(CN)O

>  <PUBCHEM_TOTAL_CHARGE>  (4) 
0

>  <PUBCHEM_XLOGP3>  (4) 
-1

$$$$
5
     RDKit          2D

 10  9  0  0  0  0  0  0  0  0999 V2000
    3.4030   -0.3170    0.0000 P   0  0  0  0  0  0  0  0  0  0  0  0
    4.2690    0.1830    0.0000 O   0  0  0  0  0  0  0  0  0  0  0  0
    2.5369   -0.8170    0.0000 O   0  0  0  0  0  0  0  0  0  0  0  0
    2.9030    0.5490    0.0000 O   0  0  0  0  0  0  0  0  0  0  0  0
    6.0010    1.1830    0.0000 O   0  0  0  0  0  0  0  0  0  0  0  0
    3.9030   -1.1830    0.0000 O   0  0  0  0  0  0  0  0  0  0  0  0
    7.7331    0.1830    0.0000 N   0  0  0  0  0  0  0  0  0  0  0  0
    5.1350   -0.3170    0.0000 C   0  0  0  0  0  0  0  0  0  0  0  0
    6.0010    0.1830    0.0000 C   0  0  0  0  0  0  0  0  0  0  0  0
    6.8671   -0.3170    0.0000 C   0  0  0  0  0  0  0  0  0  0  0  0
  1  2  1  0
  1  3  1  0
  1  4  1  0
  1  6  2  0
  2  8  1  0
  5  9  2  0
  7 10  1  0
  8  9  1  0
  9 10  1  0
M  END
>  <PUBCHEM_ATOM_DEF_STEREO_COUNT>  (5) 
0

>  <PUBCHEM_ATOM_UDEF_STEREO_COUNT>  (5) 
0

>  <PUBCHEM_BOND_DEF_STEREO_COUNT>  (5) 
0

>  <PUBCHEM_BOND_UDEF_STEREO_COUNT>  (5) 
0

>  <PUBCHEM_CACTVS_COMPLEXITY>  (5) 
162

>  <PUBCHEM_CACTVS_HBOND_ACCEPTOR>  (5) 
6

>  <PUBCHEM_CACTVS_HBOND_DONOR>  (5) 
3

>  <PUBCHEM_CACTVS_ROTATABLE_BOND>  (5) 
4

>  <PUBCHEM_CACTVS_SUBSKEYS>  (5) 
AAADccBCOAIAAAAAAAAAAAAAAAAAAAAAAAAAAAAAAAAAAAAAAAAAHgAQCCAACAThgAYAAABAARAIQIAQAIIAAAAAAAAAAIDAAAAAAAAAAAAAAAACAAAAAAAAAAAAAAAAAAAAAAAAAAAAAAAAAAAAAAAAAA==

>  <PUBCHEM_CACTVS_TAUTO_COUNT>  (5) 
4

>  <PUBCHEM_CACTVS_TPSA>  (5) 
110

>  <PUBCHEM_COMPONENT_COUNT>  (5) 
1

>  <PUBCHEM_COMPOUND_CANONICALIZED>  (5) 
1

>  <PUBCHEM_COMPOUND_CID>  (5) 
5

>  <PUBCHEM_COORDINATE_TYPE>  (5) 
1
5
255

>  <PUBCHEM_EXACT_MASS>  (5) 
169.014009

>  <PUBCHEM_HEAVY_ATOM_COUNT>  (5) 
10

>  <PUBCHEM_ISOTOPIC_ATOM_COUNT>  (5) 
0

>  <PUBCHEM_IUPAC_CAS_NAME>  (5) 
(3-amino-2-oxopropyl) dihydrogen phosphate

>  <PUBCHEM_IUPAC_INCHI>  (5) 
InChI=1S/C3H8NO5P/c4-1-3(5)2-9-10(6,7)8/h1-2,4H2,(H2,6,7,8)

>  <PUBCHEM_IUPAC_INCHIKEY>  (5) 
HIQNVODXENYOFK-UHFFFAOYSA-N

>  <PUBCHEM_IUPAC_NAME>  (5) 
(3-amino-2-oxopropyl) dihydrogen phosphate

>  <PUBCHEM_IUPAC_OPENEYE_NAME>  (5) 
(3-amino-2-oxo-propyl) dihydrogen phosphate

>  <PUBCHEM_IUPAC_SYSTEMATIC_NAME>  (5) 
(3-azanyl-2-oxidanylidene-propyl) dihydrogen phosphate

>  <PUBCHEM_IUPAC_TRADITIONAL_NAME>  (5) 
(3-amino-2-keto-propyl) dihydrogen phosphate

>  <PUBCHEM_MOLECULAR_FORMULA>  (5) 
C3H8NO5P

>  <PUBCHEM_MOLECULAR_WEIGHT>  (5) 
169.073082

>  <PUBCHEM_MONOISOTOPIC_WEIGHT>  (5) 
169.014009

>  <PUBCHEM_OPENEYE_CAN_SMILES>  (5) 
C(C(=O)COP(=O)(O)O)N

>  <PUBCHEM_OPENEYE_ISO_SMILES>  (5) 
C(C(=O)COP(=O)(O)O)N

>  <PUBCHEM_TOTAL_CHARGE>  (5) 
0

>  <PUBCHEM_XLOGP3_AA>  (5) 
-5

$$$$
